*NODE
1, 94.921875, 0, 0
2, 93.359375, 0, 0
3, 94.195556640625, 1.4788818359375, 0
4, 92.828369140625, 1.38916015625, 0
5, 92.1875, 0, 0
6, 91.015625, 0, 0
7, 89.453125, 0, 0
8, 89.443969726562, 1.9677734375, 0
9, 88.28125, 0, 0
10, 87.109375, 0, 0
11, 86.42578125, 1.015625, 0
12, 85.546875, 0, 0
13, 84.66796875, 1.142578125, 0
14, 84.375, 0, 0
15, 83.203125, 0, 0
16, 83.416748046875, 2.052001953125, 0
17, 81.640625, 0, 0
18, 81.57958984375, 1.22802734375, 0
19, 0, 8.4375, 0
20, 0, 9.84375, 0.46875
** ... 3029 like lines cut
*ELEMENT,type=C3D4,elset=Eall
4439, 1440, 2550, 1436, 2870
4440, 1738, 2730, 2174, 2740
4441, 2227, 2274, 2414, 2440
4442, 2267, 2507, 2109, 2512
4443, 2433, 1542, 2633, 2787
4444, 2284, 2241, 2377, 2457
4445, 288, 2434, 2320, 2508
4446, 2309, 2464, 2307, 2503
4447, 2309, 2403, 2233, 2854
4448, 2251, 2516, 2316, 2638
4449, 2380, 2248, 2548, 2768
4450, 2235, 2564, 2362, 2718
4451, 2242, 2520, 125, 2579
4452, 2252, 2327, 2528, 3012
4453, 2227, 2414, 2274, 2900
4454, 2322, 2624, 2398, 2926
4455, 2408, 2467, 841, 2829
4456, 2438, 2440, 2275, 2618
4457, 2403, 2416, 2233, 2854
4458, 1215, 2521, 2332, 2652
** ... 11358 like lines cut


*NSET, NSET=load_0
19,20,21,22,23,24,25,48,57,58,
70,86,95,96,119,120,130,131,141,142,
143,157,158,199,209,210,237,238,258,259,
260,261,271,294,311,312,313,314,315,316,
317,318,319,320,321,322,323,324,325,326,
327,328,329,330,331,332,333,334,335,336,
337,667,668,669,670,671,685,686,701,711,
712,713,714,715,729,753,766,773,787,788,
795,796,811,821,839,851,852,853,854,873,
874,888,889,910,929,930,931,932,933,934,
935,936,937,938,939,940,941,942,943,944,
945,946,947,948,949,950,951,952,953,954,
955,956,957,1220,1221,1222,1493,1503,1507,1508,
1509,1514,1517,1523,1540,1553,1554,1561,1566,1576,
1577,1578,1591,1597,1598,1599,1600,1633,1634,1670,
1671,1672,1673,1674,1675,1676,1677,1678,1679,1680,
1681,1682,1683,1684,1685,1686,1687,1688,1689,1690,
1691,1692,1693,1745,1766,1787,1788,1793,1794,1795,
1812,1813,1820,1821,1829,1830,1839,1840,1844,1874,
1883,1884,1910,1924,1925,1937,1971,1972,1973,1974,
** ... 13 like lines cut


*NSET, NSET=support_0
1,2,3,4,5,6,344,345,346,347,
348,349,350,380,392,393,394,395,402,421,
422,433,434,435,443,452,468,474,486,497,
498,520,536,537,538,539,571,585,586,587,
588,590,591,592,593,594,595,596,597,598,
599,600,601,602,603,604,605,606,607,608,
609,610,611,612,613,614,615,616,617,618,
619,620,621,963,964,965,985,986,987,997,
998,1018,1019,1020,1021,1038,1047,1048,1055,1068,
1069,1089,1122,1134,1135,1151,1163,1182,1196,1197,
1198,1199,1200,1201,1202,1203,1204,1205,1206,1207,
1208,1209,1210,1211,1212,1213,1214,1215,1216,1217,
1218,1219,1235,1236,1254,1263,1267,1268,1277,1301,
1311,1319,1320,1330,1331,1337,1373,1374,1388,1399,
1400,1419,1420,1434,1451,1470,1471,1472,1473,1474,
1475,1476,1477,1478,1479,1480,1481,1482,1483,1484,
1485,1486,1487,1488,1489,1490,1491,1492,1694,1695,
1696,1697,1698,1699,1700,1701,1702,1703,1704,1705,
1706,1707,1708,1709,1710,1711,1712,1713,1714,1715,
1716,1717,1718,1719,1720,1721,1722,1723,1724,1725,
** ... 12 like lines cut


*BOUNDARY
support_0,1
support_0,2
support_0,3


*MATERIAL, name=steel
*elastic
100,0.4
*solid section, elset=Eall, material=steel
*STEP
*STATIC
*CLOAD
load_0,3,0.03048780487804878

*el file
S
*node file
U
*end step
